TurbSim Input File. Valid for TurbSim v1.06.00a-bjj, 30-Jul-2012.

---------Runtime Options-----------------------------------
2304876         RandSeed1       - First random seed  (-2147483648 to 2147483647)
789012      RandSeed2       - Second random seed (-2147483648 to 2147483647) for intrinsic pRNG, or an alternative pRNG: "RanLux" or "RNSNLW"
False         WrBHHTP         - Output hub-height turbulence parameters in GenPro-binary form?  (Generates RootName.bin)
False         WrFHHTP         - Output hub-height turbulence parameters in formatted form?  (Generates RootName.dat)
FALSE         WrADHH          - Output hub-height time-series data in AeroDyn form?  (Generates RootName.hh)
TRUE          WrADFF          - Output full-field time-series data in TurbSim/AeroDyn form? (Generates RootName.bts)
true          WrBLFF          - Output full-field time-series data in BLADED/AeroDyn form?  (Generates RootName.wnd)
FALSE         WrADTWR         - Output tower time-series data? (Generates RootName.twr)
False         WrFMTFF         - Output full-field time-series data in formatted (readable) form?  (Generates RootName.u, RootName.v, RootName.w)
f True        WrACT           - Output coherent turbulence time steps in AeroDyn form? (Generates RootName.cts)
True          Clockwise       - Clockwise rotation looking downwind? (used only for full-field binary files - not necessary for AeroDyn)
 0            ScaleIEC        - Scale IEC turbulence models to exact target standard deviation? [0=no additional scaling; 1=use hub scale uniformly; 2=use individual scales]
 t            Periodic        - Ensure output files contain one full period of periodic (time) output? (not valid when WrACT=TRUE)

--------Turbine/Model Specifications-----------------------
11           NumGrid_Z       - Vertical grid-point matrix dimension
11           NumGrid_Y       - Horizontal grid-point matrix dimension
0.05         TimeStep        -  Time step [seconds]
60.        AnalysisTime    - Length of analysis time series [seconds]
60.        UsableTime      - Usable length of output time series [seconds] (program will add GridWidth/MeanHHWS seconds)
 90.60       HubHt           - Hub height [m] (should be > 0.5*GridHeight)
140.00       GridHeight      - Grid height [m]
140.00       GridWidth       - Grid width [m] (should be >= 2*(RotorRadius+ShaftLength))
0            VFlowAng        - Vertical mean flow (uptilt) angle [degrees]
0            HFlowAng        - Horizontal mean flow (skew) angle [degrees]

--------Meteorological Boundary Conditions-------------------
IECKAI GP_LLJ "usrvkm" TurbModel       - Turbulence model ("IECKAI"=Kaimal, "IECVKM"=von Karman, "GP_LLJ", "NWTCUP", "SMOOTH", "WF_UPW", "WF_07D", "WF_14D", or "NONE")
1-ed3            IECstandard     - Number of IEC 61400-x standard (x=1,2, or 3 with optional 61400-1 edition number (i.e. "1-Ed2") )
a            IECturbc        - IEC turbulence characteristic ("A", "B", "C" or the turbulence intensity in percent) ("KHTEST" option with NWTCUP, not used for other models)
NTM           4 IEC_WindType    - IEC turbulence type ("NTM"=normal, "xETM"=extreme turbulence, "xEWM1"=extreme 1-year wind, "xEWM50"=extreme 50-year wind, where x=wind turbine class 1, 2, or 3)
default        5 ETMc            - IEC Extreme turbulence model "c" parameter [m/s]
log            6 WindProfileType - Wind profile type ("JET"=Low-level jet,"LOG"=Logarithmic,"PL"=Power law, or "default", or "USR"=User-defined)
90.6               RefHt           - Height of the reference wind speed [m]
6 default     8 URef            - Mean (total) wind speed at the reference height [m/s]
default            9 ZJetMax         - Jet height [m] (used only for JET wind profile, valid 70-490 m)
Default       10 PLExp           - Power law exponent  (or "default")
0.0002 default       11 Z0              - Surface roughness length [m] (or "default")

--------Non-IEC Meteorological Boundary Conditions------------
default        1 Latitude        - Site latitude [degrees] (or "default")
-3.8              2 RICH_NO         - Gradient Richardson number
default            3 UStar           - Friction or shear velocity [m/s] (or "default")
default        4 ZI              - Mixing layer depth [m] (or "default")
default        5 PC_UW           - Hub mean u'w' Reynolds stress (or "default")
default        6 PC_UV           - Hub mean u'v' Reynolds stress (or "default")
default        7 PC_VW           - Hub mean v'w' Reynolds stress (or "default")
default "15 0.1"    8 IncDec1       - u-component coherence parameters (or "default")
default "12 0.3"    9 IncDec2       - v-component coherence parameters (or "default")
default "10 0.5"    10 IncDec3       - w-component coherence parameters (or "default")
default        11 CohExp          - Coherence exponent (or "default")

--------Coherent Turbulence Scaling Parameters-------------------
"Y:\Wind\Archive\Public\Projects\Projects G-R\KH_Billow\EventData"    CTEventPath     -   Name of the path where event data files are located
"Random"       CTEventFile     - Type of event files ("random", "les" or "dns")
true           Randomize       - Randomize disturbance scale and location? (true/false)
1.0            DistScl         - Disturbance scale (ratio of dataset height to rotor disk).
0.5            CTLy            - Fractional location of tower centerline from right (looking downwind) to left side of the dataset.
0.5            CTLz            - Fractional location of hub height from the bottom of the dataset.
30.0           CTStartTime     - Minimum start time for coherent structures in RootName.cts [seconds]

-------- User-Defined Profiles (Used only with USR wind profile or USRVKM spectral model) -------------------
5               NumUSRz        - Number of Heights
1.092           StdScale1      - u-component scaling factor for the input standard deviation
1.0             StdScale2      - v-component scaling factor for the input standard deviation
0.534           StdScale3      - w-component scaling factor for the input standard deviation
...................................................................................
Height    Wind Speed       Wind --Direction--        Standard Deviation    Length Scale
 (m)        (m/s)       (deg, cntr-clockwise )            (m/s)              (m)
-----------------------------------------------------------------------------------
15.0           3            00                            .100                  3   
25.0           4            00                            .200                  4   
35.0           5            00                            .300                  6   
45.0           6            00                            .100                  9   
55.0           7            00                            .500                 13   

==================================================
NOTE: Do not add or remove any lines in this file!
==================================================
